<?xml version="1.0" encoding="UTF-8"?>

<!-- generated on 2024-10-11 15:14:19 by Eclipse SUMO netconvert Version 1.20.0
<configuration xmlns:xsi="http://www.w3.org/2001/XMLSchema-instance" xsi:noNamespaceSchemaLocation="http://sumo.dlr.de/xsd/netconvertConfiguration.xsd">

    <input>
        <osm-files value="map.osm"/>
    </input>

    <output>
        <output-file value="map.net.xml"/>
    </output>

    <projection>
        <proj.utm value="true"/>
    </projection>

</configuration>
-->

<net version="1.20" junctionCornerDetail="5" limitTurnSpeed="5.50" xmlns:xsi="http://www.w3.org/2001/XMLSchema-instance" xsi:noNamespaceSchemaLocation="http://sumo.dlr.de/xsd/net_file.xsd">

    <location netOffset="-443523.59,-1819254.27" convBoundary="0.00,0.00,6252.39,3455.92" origBoundary="80.470919,16.433646,80.557348,16.485545" projParameter="+proj=utm +zone=44 +ellps=WGS84 +datum=WGS84 +units=m +no_defs"/>

    <type id="highway.residential" priority="3" numLanes="1" speed="13.89" disallow="tram rail_urban rail rail_electric rail_fast ship container cable_car subway aircraft wheelchair scooter drone" oneway="0"/>
    <type id="highway.secondary" priority="11" numLanes="1" speed="27.78" disallow="tram rail_urban rail rail_electric rail_fast ship container cable_car subway aircraft wheelchair scooter drone" oneway="0"/>
    <type id="highway.service" priority="1" numLanes="1" speed="5.56" allow="pedestrian delivery bicycle" oneway="0"/>
    <type id="highway.track" priority="1" numLanes="1" speed="5.56" allow="pedestrian motorcycle moped bicycle" oneway="0"/>
    <type id="highway.unclassified" priority="4" numLanes="1" speed="13.89" disallow="tram rail_urban rail rail_electric rail_fast ship container cable_car subway aircraft wheelchair scooter drone" oneway="0"/>


    <edge id=":12181300155_0" function="internal">
        <lane id=":12181300155_0_0" index="0" allow="pedestrian motorcycle moped bicycle" speed="5.56" length="23.66" shape="2807.14,1450.14 2794.87,1470.37"/>
    </edge>
    <edge id=":12181300155_1" function="internal">
        <lane id=":12181300155_1_0" index="0" allow="pedestrian motorcycle moped bicycle" speed="9.72" length="24.07" shape="2807.14,1450.14 2803.73,1453.93 2798.46,1458.32 2792.90,1462.43 2788.64,1465.42"/>
    </edge>
    <edge id=":12181300155_2" function="internal">
        <lane id=":12181300155_2_0" index="0" allow="pedestrian motorcycle moped bicycle" speed="3.65" length="1.44" shape="2807.14,1450.14 2805.83,1450.76"/>
    </edge>
    <edge id=":12181300155_9" function="internal">
        <lane id=":12181300155_9_0" index="0" allow="pedestrian motorcycle moped bicycle" speed="3.65" length="3.23" shape="2805.83,1450.76 2804.94,1450.68 2804.47,1449.92 2804.41,1448.48"/>
    </edge>
    <edge id=":12181300155_3" function="internal">
        <lane id=":12181300155_3_0" index="0" allow="pedestrian motorcycle moped bicycle" speed="9.72" length="22.75" shape="2786.82,1462.78 2790.94,1459.95 2796.18,1456.17 2801.14,1452.12 2804.41,1448.48"/>
    </edge>
    <edge id=":12181300155_4" function="internal">
        <lane id=":12181300155_4_0" index="0" allow="pedestrian motorcycle moped bicycle" speed="6.19" length="2.20" shape="2786.82,1462.78 2788.95,1462.21"/>
    </edge>
    <edge id=":12181300155_5" function="internal">
        <lane id=":12181300155_5_0" index="0" disallow="tram rail_urban rail rail_electric rail_fast ship container cable_car subway aircraft wheelchair scooter drone" speed="3.65" length="1.44" shape="2786.82,1462.78 2788.26,1462.76"/>
    </edge>
    <edge id=":12181300155_10" function="internal">
        <lane id=":12181300155_10_0" index="0" allow="pedestrian motorcycle moped bicycle" speed="6.19" length="12.99" shape="2788.95,1462.21 2790.66,1461.76 2793.93,1463.30 2795.67,1466.48 2794.87,1470.37"/>
    </edge>
    <edge id=":12181300155_11" function="internal">
        <lane id=":12181300155_11_0" index="0" disallow="tram rail_urban rail rail_electric rail_fast ship container cable_car subway aircraft wheelchair scooter drone" speed="3.65" length="3.23" shape="2788.26,1462.76 2789.05,1463.19 2789.17,1464.08 2788.64,1465.42"/>
    </edge>
    <edge id=":12181300155_6" function="internal">
        <lane id=":12181300155_6_0" index="0" allow="pedestrian motorcycle moped bicycle" speed="5.68" length="12.46" shape="2792.13,1468.71 2794.15,1464.82 2794.24,1462.97 2792.40,1463.17 2788.64,1465.42"/>
    </edge>
    <edge id=":12181300155_7" function="internal">
        <lane id=":12181300155_7_0" index="0" allow="pedestrian motorcycle moped bicycle" speed="5.56" length="23.66" shape="2792.13,1468.71 2804.41,1448.48"/>
    </edge>
    <edge id=":12181300155_8" function="internal">
        <lane id=":12181300155_8_0" index="0" allow="pedestrian motorcycle moped bicycle" speed="3.65" length="4.67" shape="2792.13,1468.71 2793.44,1468.10 2794.33,1468.17 2794.81,1468.93 2794.87,1470.37"/>
    </edge>
    <edge id=":2748489562_0" function="internal">
        <lane id=":2748489562_0_0" index="0" disallow="tram rail_urban rail rail_electric rail_fast ship container cable_car subway aircraft wheelchair scooter drone" speed="6.13" length="10.23" shape="5768.91,-0.53 5771.89,-0.77 5773.84,0.07 5774.77,1.99 5774.67,4.97"/>
    </edge>
    <edge id=":2748489562_1" function="internal">
        <lane id=":2748489562_1_0" index="0" disallow="tram rail_urban rail rail_electric rail_fast ship container cable_car subway aircraft wheelchair scooter drone" speed="3.93" length="3.41" shape="5771.52,4.43 5771.55,3.43 5771.24,2.79 5770.59,2.51 5769.60,2.59"/>
    </edge>
    <edge id=":2748489673_0" function="internal">
        <lane id=":2748489673_0_0" index="0" disallow="tram rail_urban rail rail_electric rail_fast ship container cable_car subway aircraft wheelchair scooter drone" speed="6.39" length="9.04" shape="2269.01,466.43 2267.64,464.34 2265.95,463.23 2263.93,463.10 2261.58,463.95"/>
    </edge>
    <edge id=":2748489673_1" function="internal">
        <lane id=":2748489673_1_0" index="0" disallow="tram rail_urban rail rail_electric rail_fast ship container cable_car subway aircraft wheelchair scooter drone" speed="7.99" length="14.36" shape="2269.01,466.43 2267.85,462.63 2268.19,459.40 2270.02,456.75 2273.34,454.67"/>
    </edge>
    <edge id=":2748489673_2" function="internal">
        <lane id=":2748489673_2_0" index="0" disallow="tram rail_urban rail rail_electric rail_fast ship container cable_car subway aircraft wheelchair scooter drone" speed="3.65" length="4.67" shape="2269.01,466.43 2269.23,465.00 2269.78,464.30 2270.68,464.32 2271.91,465.07"/>
    </edge>
    <edge id=":2748489673_3" function="internal">
        <lane id=":2748489673_3_0" index="0" disallow="tram rail_urban rail rail_electric rail_fast ship container cable_car subway aircraft wheelchair scooter drone" speed="6.49" length="9.12" shape="2274.63,457.59 2272.53,458.92 2271.38,460.60 2271.17,462.65 2271.91,465.07"/>
    </edge>
    <edge id=":2748489673_4" function="internal">
        <lane id=":2748489673_4_0" index="0" disallow="tram rail_urban rail rail_electric rail_fast ship container cable_car subway aircraft wheelchair scooter drone" speed="27.78" length="14.51" shape="2274.63,457.59 2261.58,463.95"/>
    </edge>
    <edge id=":2748489673_5" function="internal">
        <lane id=":2748489673_5_0" index="0" disallow="tram rail_urban rail rail_electric rail_fast ship container cable_car subway aircraft wheelchair scooter drone" speed="3.65" length="1.44" shape="2274.63,457.59 2273.21,457.35"/>
    </edge>
    <edge id=":2748489673_9" function="internal">
        <lane id=":2748489673_9_0" index="0" disallow="tram rail_urban rail rail_electric rail_fast ship container cable_car subway aircraft wheelchair scooter drone" speed="3.65" length="3.23" shape="2273.21,457.35 2272.52,456.78 2272.57,455.88 2273.34,454.67"/>
    </edge>
    <edge id=":2748489673_6" function="internal">
        <lane id=":2748489673_6_0" index="0" disallow="tram rail_urban rail rail_electric rail_fast ship container cable_car subway aircraft wheelchair scooter drone" speed="27.78" length="14.75" shape="2260.08,461.12 2273.34,454.67"/>
    </edge>
    <edge id=":2748489673_7" function="internal">
        <lane id=":2748489673_7_0" index="0" disallow="tram rail_urban rail rail_electric rail_fast ship container cable_car subway aircraft wheelchair scooter drone" speed="7.91" length="4.40" shape="2260.08,461.12 2263.82,459.77 2264.24,459.80"/>
    </edge>
    <edge id=":2748489673_8" function="internal">
        <lane id=":2748489673_8_0" index="0" disallow="tram rail_urban rail rail_electric rail_fast ship container cable_car subway aircraft wheelchair scooter drone" speed="3.65" length="1.44" shape="2260.08,461.12 2261.52,461.26"/>
    </edge>
    <edge id=":2748489673_10" function="internal">
        <lane id=":2748489673_10_0" index="0" disallow="tram rail_urban rail rail_electric rail_fast ship container cable_car subway aircraft wheelchair scooter drone" speed="7.91" length="10.00" shape="2264.24,459.80 2267.04,459.98 2269.73,461.75 2271.91,465.07"/>
    </edge>
    <edge id=":2748489673_11" function="internal">
        <lane id=":2748489673_11_0" index="0" disallow="tram rail_urban rail rail_electric rail_fast ship container cable_car subway aircraft wheelchair scooter drone" speed="3.65" length="3.23" shape="2261.52,461.26 2262.24,461.78 2262.27,462.67 2261.58,463.95"/>
    </edge>
    <edge id=":2748489792_0" function="internal">
        <lane id=":2748489792_0_0" index="0" disallow="tram rail_urban rail rail_electric rail_fast ship container cable_car subway aircraft wheelchair scooter drone" speed="4.18" length="1.28" shape="3894.94,586.55 3894.63,586.64 3894.35,586.79 3894.11,586.99 3893.90,587.24"/>
    </edge>
    <edge id=":2748489792_1" function="internal">
        <lane id=":2748489792_1_0" index="0" disallow="tram rail_urban rail rail_electric rail_fast ship container cable_car subway aircraft wheelchair scooter drone" speed="6.60" length="3.85" shape="3891.23,585.47 3891.85,584.71 3892.58,584.11 3893.42,583.67 3894.36,583.41"/>
    </edge>
    <edge id=":2748489865_0" function="internal">
        <lane id=":2748489865_0_0" index="0" disallow="tram rail_urban rail rail_electric rail_fast ship container cable_car subway aircraft wheelchair scooter drone" speed="3.65" length="4.67" shape="0.05,709.46 -1.17,708.70 -1.60,707.91 -1.22,707.10 -0.05,706.27"/>
    </edge>
    <edge id=":2748489866_0" function="internal">
        <lane id=":2748489866_0_0" index="0" disallow="tram rail_urban rail rail_electric rail_fast ship container cable_car subway aircraft wheelchair scooter drone" speed="7.33" length="10.16" shape="3010.91,747.46 3009.61,745.38 3007.76,744.10 3005.34,743.62 3002.36,743.93"/>
    </edge>
    <edge id=":2748489866_1" function="internal">
        <lane id=":2748489866_1_0" index="0" disallow="tram rail_urban rail rail_electric rail_fast ship container cable_car subway aircraft wheelchair scooter drone" speed="27.78" length="14.62" shape="3010.91,747.46 3004.99,734.09"/>
    </edge>
    <edge id=":2748489866_2" function="internal">
        <lane id=":2748489866_2_0" index="0" disallow="tram rail_urban rail rail_electric rail_fast ship container cable_car subway aircraft wheelchair scooter drone" speed="3.65" length="1.44" shape="3010.91,747.46 3011.19,746.04"/>
    </edge>
    <edge id=":2748489866_9" function="internal">
        <lane id=":2748489866_9_0" index="0" disallow="tram rail_urban rail rail_electric rail_fast ship container cable_car subway aircraft wheelchair scooter drone" speed="3.65" length="3.23" shape="3011.19,746.04 3011.78,745.37 3012.67,745.44 3013.87,746.24"/>
    </edge>
    <edge id=":2748489866_3" function="internal">
        <lane id=":2748489866_3_0" index="0" disallow="tram rail_urban rail rail_electric rail_fast ship container cable_car subway aircraft wheelchair scooter drone" speed="27.78" length="14.78" shape="3007.88,732.73 3013.87,746.24"/>
    </edge>
    <edge id=":2748489866_4" function="internal">
        <lane id=":2748489866_4_0" index="0" disallow="tram rail_urban rail rail_electric rail_fast ship container cable_car subway aircraft wheelchair scooter drone" speed="7.66" length="4.49" shape="3007.88,732.73 3009.14,736.83 3009.11,737.03"/>
    </edge>
    <edge id=":2748489866_5" function="internal">
        <lane id=":2748489866_5_0" index="0" disallow="tram rail_urban rail rail_electric rail_fast ship container cable_car subway aircraft wheelchair scooter drone" speed="3.65" length="1.44" shape="3007.88,732.73 3007.67,734.15"/>
    </edge>
    <edge id=":2748489866_10" function="internal">
        <lane id=":2748489866_10_0" index="0" disallow="tram rail_urban rail rail_electric rail_fast ship container cable_car subway aircraft wheelchair scooter drone" speed="7.66" length="10.64" shape="3009.11,737.03 3008.64,740.07 3006.38,742.43 3002.36,743.93"/>
    </edge>
    <edge id=":2748489866_11" function="internal">
        <lane id=":2748489866_11_0" index="0" disallow="tram rail_urban rail rail_electric rail_fast ship container cable_car subway aircraft wheelchair scooter drone" speed="3.65" length="3.23" shape="3007.67,734.15 3007.12,734.86 3006.22,734.84 3004.99,734.09"/>
    </edge>
    <edge id=":2748489866_6" function="internal">
        <lane id=":2748489866_6_0" index="0" disallow="tram rail_urban rail rail_electric rail_fast ship container cable_car subway aircraft wheelchair scooter drone" speed="6.07" length="9.07" shape="3001.68,740.80 3004.09,739.91 3005.44,738.49 3005.74,736.55 3004.99,734.09"/>
    </edge>
    <edge id=":2748489866_7" function="internal">
        <lane id=":2748489866_7_0" index="0" disallow="tram rail_urban rail rail_electric rail_fast ship container cable_car subway aircraft wheelchair scooter drone" speed="8.70" length="14.69" shape="3001.68,740.80 3005.87,740.40 3009.30,741.17 3011.97,743.12 3013.87,746.24"/>
    </edge>
    <edge id=":2748489866_8" function="internal">
        <lane id=":2748489866_8_0" index="0" disallow="tram rail_urban rail rail_electric rail_fast ship container cable_car subway aircraft wheelchair scooter drone" speed="3.65" length="4.67" shape="3001.68,740.80 3003.02,741.33 3003.58,742.03 3003.36,742.89 3002.36,743.93"/>
    </edge>
    <edge id=":2748489878_0" function="internal">
        <lane id=":2748489878_0_0" index="0" disallow="tram rail_urban rail rail_electric rail_fast ship container cable_car subway aircraft wheelchair scooter drone" speed="27.78" length="0.30" shape="3526.79,716.93 3526.50,717.02"/>
    </edge>
    <edge id=":2748489878_1" function="internal">
        <lane id=":2748489878_1_0" index="0" disallow="tram rail_urban rail rail_electric rail_fast ship container cable_car subway aircraft wheelchair scooter drone" speed="27.78" length="0.20" shape="3525.57,713.96 3525.77,713.90"/>
    </edge>
    <edge id=":2748489886_0" function="internal">
        <lane id=":2748489886_0_0" index="0" disallow="tram rail_urban rail rail_electric rail_fast ship container cable_car subway aircraft wheelchair scooter drone" speed="27.78" length="0.30" shape="3229.51,799.99 3229.23,800.06"/>
    </edge>
    <edge id=":2748489886_1" function="internal">
        <lane id=":2748489886_1_0" index="0" disallow="tram rail_urban rail rail_electric rail_fast ship container cable_car subway aircraft wheelchair scooter drone" speed="27.78" length="0.30" shape="3228.40,796.97 3228.69,796.89"/>
    </edge>
    <edge id=":2748489893_0" function="internal">
        <lane id=":2748489893_0_0" index="0" disallow="tram rail_urban rail rail_electric rail_fast ship container cable_car subway aircraft wheelchair scooter drone" speed="27.78" length="0.28" shape="3190.95,810.31 3190.68,810.39"/>
    </edge>
    <edge id=":2748489893_1" function="internal">
        <lane id=":2748489893_1_0" index="0" disallow="tram rail_urban rail rail_electric rail_fast ship container cable_car subway aircraft wheelchair scooter drone" speed="27.78" length="0.31" shape="3189.82,807.30 3190.12,807.22"/>
    </edge>
    <edge id=":2748489914_0" function="internal">
        <lane id=":2748489914_0_0" index="0" disallow="tram rail_urban rail rail_electric rail_fast ship container cable_car subway aircraft wheelchair scooter drone" speed="6.56" length="7.76" shape="3058.14,846.11 3056.06,846.15 3054.38,846.81 3053.09,848.07 3052.19,849.94"/>
    </edge>
    <edge id=":2748489914_1" function="internal">
        <lane id=":2748489914_1_0" index="0" disallow="tram rail_urban rail rail_electric rail_fast ship container cable_car subway aircraft wheelchair scooter drone" speed="11.37" length="11.70" shape="3058.14,846.11 3054.91,845.62 3052.43,844.79 3050.28,843.34 3048.08,840.98"/>
    </edge>
    <edge id=":2748489914_2" function="internal">
        <lane id=":2748489914_2_0" index="0" disallow="tram rail_urban rail rail_electric rail_fast ship container cable_car subway aircraft wheelchair scooter drone" speed="3.65" length="1.44" shape="3058.14,846.11 3057.03,845.18"/>
    </edge>
    <edge id=":2748489914_9" function="internal">
        <lane id=":2748489914_9_0" index="0" disallow="tram rail_urban rail rail_electric rail_fast ship container cable_car subway aircraft wheelchair scooter drone" speed="3.65" length="3.23" shape="3057.03,845.18 3056.73,844.34 3057.21,843.59 3058.50,842.93"/>
    </edge>
    <edge id=":2748489914_3" function="internal">
        <lane id=":2748489914_3_0" index="0" disallow="tram rail_urban rail rail_electric rail_fast ship container cable_car subway aircraft wheelchair scooter drone" speed="10.16" length="9.26" shape="3050.56,838.97 3052.36,840.97 3053.93,842.05 3055.79,842.58 3058.50,842.93"/>
    </edge>
    <edge id=":2748489914_4" function="internal">
        <lane id=":2748489914_4_0" index="0" disallow="tram rail_urban rail rail_electric rail_fast ship container cable_car subway aircraft wheelchair scooter drone" speed="9.55" length="3.11" shape="3050.56,838.97 3052.05,841.36 3052.14,841.64"/>
    </edge>
    <edge id=":2748489914_5" function="internal">
        <lane id=":2748489914_5_0" index="0" disallow="tram rail_urban rail rail_electric rail_fast ship container cable_car subway aircraft wheelchair scooter drone" speed="3.65" length="1.44" shape="3050.56,838.97 3050.70,840.40"/>
    </edge>
    <edge id=":2748489914_10" function="internal">
        <lane id=":2748489914_10_0" index="0" disallow="tram rail_urban rail rail_electric rail_fast ship container cable_car subway aircraft wheelchair scooter drone" speed="9.55" length="8.48" shape="3052.14,841.64 3052.82,843.99 3052.87,846.85 3052.19,849.94"/>
    </edge>
    <edge id=":2748489914_11" function="internal">
        <lane id=":2748489914_11_0" index="0" disallow="tram rail_urban rail rail_electric rail_fast ship container cable_car subway aircraft wheelchair scooter drone" speed="3.65" length="3.23" shape="3050.70,840.40 3050.33,841.22 3049.46,841.41 3048.08,840.98"/>
    </edge>
    <edge id=":2748489914_6" function="internal">
        <lane id=":2748489914_6_0" index="0" disallow="tram rail_urban rail rail_electric rail_fast ship container cable_car subway aircraft wheelchair scooter drone" speed="8.20" length="8.39" shape="3049.14,848.95 3049.66,846.67 3049.65,844.58 3049.12,842.69 3048.08,840.98"/>
    </edge>
    <edge id=":2748489914_7" function="internal">
        <lane id=":2748489914_7_0" index="0" disallow="tram rail_urban rail rail_electric rail_fast ship container cable_car subway aircraft wheelchair scooter drone" speed="8.06" length="12.20" shape="3049.14,848.95 3050.56,846.02 3052.59,844.03 3055.23,843.00 3058.50,842.93"/>
    </edge>
    <edge id=":2748489914_8" function="internal">
        <lane id=":2748489914_8_0" index="0" disallow="tram rail_urban rail rail_electric rail_fast ship container cable_car subway aircraft wheelchair scooter drone" speed="3.65" length="4.67" shape="3049.14,848.95 3050.27,848.06 3051.16,847.93 3051.80,848.55 3052.19,849.94"/>
    </edge>
    <edge id=":2748490070_0" function="internal">
        <lane id=":2748490070_0_0" index="0" disallow="tram rail_urban rail rail_electric rail_fast ship container cable_car subway aircraft wheelchair scooter drone" speed="8.63" length="12.79" shape="4715.95,1181.89 4714.00,1183.62 4712.89,1186.14 4712.60,1189.44 4713.14,1193.53"/>
    </edge>
    <edge id=":2748490070_1" function="internal">
        <lane id=":2748490070_1_0" index="0" allow="pedestrian motorcycle moped bicycle" speed="13.86" length="5.04" shape="4715.95,1181.89 4713.05,1183.88 4711.84,1184.81"/>
    </edge>
    <edge id=":2748490070_2" function="internal">
        <lane id=":2748490070_2_0" index="0" disallow="tram rail_urban rail rail_electric rail_fast ship container cable_car subway aircraft wheelchair scooter drone" speed="3.95" length="5.30" shape="4715.95,1181.89 4714.43,1182.88 4713.31,1182.94 4712.58,1182.09 4712.36,1180.86"/>
    </edge>
    <edge id=":2748490070_9" function="internal">
        <lane id=":2748490070_9_0" index="0" allow="pedestrian motorcycle moped bicycle" speed="13.86" length="7.85" shape="4711.84,1184.81 4710.54,1185.82 4707.92,1187.18 4704.68,1187.43"/>
    </edge>
    <edge id=":2748490070_10" function="internal">
        <lane id=":2748490070_10_0" index="0" disallow="tram rail_urban rail rail_electric rail_fast ship container cable_car subway aircraft wheelchair scooter drone" speed="3.95" length="0.57" shape="4712.36,1180.86 4712.25,1180.30"/>
    </edge>
    <edge id=":2748490070_3" function="internal">
        <lane id=":2748490070_3_0" index="0" allow="pedestrian motorcycle moped bicycle" speed="11.35" length="8.54" shape="4705.08,1184.26 4707.41,1184.14 4708.85,1183.23 4710.20,1181.85 4712.25,1180.30"/>
    </edge>
    <edge id=":2748490070_4" function="internal">
        <lane id=":2748490070_4_0" index="0" allow="pedestrian motorcycle moped bicycle" speed="8.87" length="13.15" shape="4705.08,1184.26 4707.92,1185.13 4710.22,1186.97 4711.96,1189.76 4713.14,1193.53"/>
    </edge>
    <edge id=":2748490070_5" function="internal">
        <lane id=":2748490070_5_0" index="0" allow="pedestrian motorcycle moped bicycle" speed="3.65" length="4.67" shape="4705.08,1184.26 4706.17,1185.20 4706.47,1186.04 4705.97,1186.79 4704.68,1187.43"/>
    </edge>
    <edge id=":2748490070_6" function="internal">
        <lane id=":2748490070_6_0" index="0" allow="pedestrian motorcycle moped bicycle" speed="7.19" length="8.38" shape="4709.83,1193.33 4709.07,1190.94 4707.96,1189.16 4706.50,1187.99 4704.68,1187.43"/>
    </edge>
    <edge id=":2748490070_7" function="internal">
        <lane id=":2748490070_7_0" index="0" disallow="tram rail_urban rail rail_electric rail_fast ship container cable_car subway aircraft wheelchair scooter drone" speed="9.03" length="14.08" shape="4709.83,1193.33 4709.15,1188.62 4709.32,1184.88 4710.36,1182.11 4712.25,1180.30"/>
    </edge>
    <edge id=":2748490070_8" function="internal">
        <lane id=":2748490070_8_0" index="0" disallow="tram rail_urban rail rail_electric rail_fast ship container cable_car subway aircraft wheelchair scooter drone" speed="3.70" length="1.50" shape="4709.83,1193.33 4710.73,1192.14"/>
    </edge>
    <edge id=":2748490070_11" function="internal">
        <lane id=":2748490070_11_0" index="0" disallow="tram rail_urban rail rail_electric rail_fast ship container cable_car subway aircraft wheelchair scooter drone" speed="3.70" length="3.35" shape="4710.73,1192.14 4711.58,1191.77 4712.39,1192.23 4713.14,1193.53"/>
    </edge>
    <edge id=":2748490176_0" function="internal">
        <lane id=":2748490176_0_0" index="0" disallow="tram rail_urban rail rail_electric rail_fast ship container cable_car subway aircraft wheelchair scooter drone" speed="27.78" length="0.30" shape="4787.99,1563.18 4787.98,1562.88"/>
    </edge>
    <edge id=":2748490176_1" function="internal">
        <lane id=":2748490176_1_0" index="0" disallow="tram rail_urban rail rail_electric rail_fast ship container cable_car subway aircraft wheelchair scooter drone" speed="27.78" length="0.30" shape="4791.18,1562.74 4791.19,1563.04"/>
    </edge>
    <edge id=":2748490182_0" function="internal">
        <lane id=":2748490182_0_0" index="0" disallow="tram rail_urban rail rail_electric rail_fast ship container cable_car subway aircraft wheelchair scooter drone" speed="27.78" length="0.77" shape="4791.99,1581.66 4792.00,1581.89 4792.00,1582.05 4791.98,1582.20 4791.96,1582.43"/>
    </edge>
    <edge id=":2748490182_1" function="internal">
        <lane id=":2748490182_1_0" index="0" disallow="tram rail_urban rail rail_electric rail_fast ship container cable_car subway aircraft wheelchair scooter drone" speed="27.78" length="0.26" shape="4788.78,1582.05 4788.79,1581.98 4788.79,1581.93 4788.79,1581.87 4788.79,1581.80"/>
    </edge>
    <edge id=":2748490188_0" function="internal">
        <lane id=":2748490188_0_0" index="0" disallow="tram rail_urban rail rail_electric rail_fast ship container cable_car subway aircraft wheelchair scooter drone" speed="7.47" length="8.32" shape="4789.28,1613.32 4787.99,1612.54 4786.23,1612.31 4784.02,1612.62 4781.35,1613.48"/>
    </edge>
    <edge id=":2748490188_1" function="internal">
        <lane id=":2748490188_1_0" index="0" disallow="tram rail_urban rail rail_electric rail_fast ship container cable_car subway aircraft wheelchair scooter drone" speed="10.44" length="13.72" shape="4789.28,1613.32 4787.30,1610.76 4786.11,1607.78 4785.71,1604.37 4786.10,1600.55"/>
    </edge>
    <edge id=":2748490188_2" function="internal">
        <lane id=":2748490188_2_0" index="0" disallow="tram rail_urban rail rail_electric rail_fast ship container cable_car subway aircraft wheelchair scooter drone" speed="3.65" length="4.67" shape="4789.28,1613.32 4788.99,1611.91 4789.27,1611.06 4790.12,1610.77 4791.53,1611.05"/>
    </edge>
    <edge id=":2748490188_3" function="internal">
        <lane id=":2748490188_3_0" index="0" disallow="tram rail_urban rail rail_electric rail_fast ship container cable_car subway aircraft wheelchair scooter drone" speed="7.97" length="10.18" shape="4789.04,1601.86 4788.41,1604.18 4788.62,1606.49 4789.66,1608.78 4791.53,1611.05"/>
    </edge>
    <edge id=":2748490188_4" function="internal">
        <lane id=":2748490188_4_0" index="0" disallow="tram rail_urban rail rail_electric rail_fast ship container cable_car subway aircraft wheelchair scooter drone" speed="12.51" length="14.33" shape="4789.04,1601.86 4787.63,1605.34 4786.18,1608.70 4784.23,1611.54 4781.35,1613.48"/>
    </edge>
    <edge id=":2748490188_5" function="internal">
        <lane id=":2748490188_5_0" index="0" disallow="tram rail_urban rail rail_electric rail_fast ship container cable_car subway aircraft wheelchair scooter drone" speed="3.76" length="1.32" shape="4789.04,1601.86 4787.92,1602.56"/>
    </edge>
    <edge id=":2748490188_9" function="internal">
        <lane id=":2748490188_9_0" index="0" disallow="tram rail_urban rail rail_electric rail_fast ship container cable_car subway aircraft wheelchair scooter drone" speed="3.76" length="3.37" shape="4787.92,1602.56 4787.81,1602.63 4786.92,1602.67 4786.35,1601.98 4786.10,1600.55"/>
    </edge>
    <edge id=":2748490188_6" function="internal">
        <lane id=":2748490188_6_0" index="0" disallow="tram rail_urban rail rail_electric rail_fast ship container cable_car subway aircraft wheelchair scooter drone" speed="10.22" length="13.52" shape="4778.61,1611.11 4781.28,1609.59 4783.42,1607.33 4785.03,1604.31 4786.10,1600.55"/>
    </edge>
    <edge id=":2748490188_7" function="internal">
        <lane id=":2748490188_7_0" index="0" disallow="tram rail_urban rail rail_electric rail_fast ship container cable_car subway aircraft wheelchair scooter drone" speed="9.39" length="3.67" shape="4778.61,1611.11 4782.10,1610.00"/>
    </edge>
    <edge id=":2748490188_8" function="internal">
        <lane id=":2748490188_8_0" index="0" disallow="tram rail_urban rail rail_electric rail_fast ship container cable_car subway aircraft wheelchair scooter drone" speed="3.81" length="2.10" shape="4778.61,1611.11 4780.18,1610.67 4780.63,1610.79"/>
    </edge>
    <edge id=":2748490188_10" function="internal">
        <lane id=":2748490188_10_0" index="0" disallow="tram rail_urban rail rail_electric rail_fast ship container cable_car subway aircraft wheelchair scooter drone" speed="9.39" length="9.91" shape="4782.10,1610.00 4782.91,1609.75 4786.50,1609.28 4789.37,1609.71 4791.53,1611.05"/>
    </edge>
    <edge id=":2748490188_11" function="internal">
        <lane id=":2748490188_11_0" index="0" disallow="tram rail_urban rail rail_electric rail_fast ship container cable_car subway aircraft wheelchair scooter drone" speed="3.81" length="3.19" shape="4780.63,1610.79 4781.16,1610.92 4781.55,1611.86 4781.35,1613.48"/>
    </edge>
    <edge id=":2748490444_0" function="internal">
        <lane id=":2748490444_0_0" index="0" disallow="tram rail_urban rail rail_electric rail_fast ship container cable_car subway aircraft wheelchair scooter drone" speed="3.65" length="4.67" shape="3404.31,3457.52 3403.08,3456.76 3402.65,3455.97 3403.03,3455.16 3404.20,3454.32"/>
    </edge>
    <edge id=":5128362725_0" function="internal">
        <lane id=":5128362725_0_0" index="0" disallow="tram rail_urban rail rail_electric rail_fast ship container cable_car subway aircraft wheelchair scooter drone" speed="9.22" length="12.08" shape="4576.53,384.56 4574.61,386.09 4573.23,388.38 4572.41,391.42 4572.13,395.21"/>
    </edge>
    <edge id=":5128362725_1" function="internal">